
Circuit: ** sch_path: /home/milad/.xschem/xschem_library/vsd/week3/(3)post_layout_ring/ro_test.sch

Scale set
Doing analysis at TEMP = 27.000000 and TNOM = 27.000000

Warning: Eta0 = -0.377401 is negative.
Warning: A2 = -0.597908 is too small. Set to 0.01.
Warning: Eta0 = -0.377401 is negative.
Warning: A2 = -0.597908 is too small. Set to 0.01.
Warning: Eta0 = -0.377401 is negative.
Warning: A2 = -0.597908 is too small. Set to 0.01.
Warning: Eta0 = -0.00341405 is negative.
Warning: Eta0 = -0.00341405 is negative.
Warning: Eta0 = -0.00341405 is negative.
No. of Data Columns : 24  

Initial Transient Solution
--------------------------

Node                                   Voltage
----                                   -------
vdd                                        1.8
x1.1                               1.79778e-08
va                                         1.8
x1.2                                       1.8
vdd#branch                        -5.81116e-12


No. of Data Rows : 158

No .measure possible in batch mode (-b) with -r rawfile set!
Remove rawfile and use .print or .plot or
select interactive mode (optionally with .control section) instead.

elapsed time since last call: 120.885 seconds.

Total elapsed time: 120.886 seconds.

Total DRAM available = 2932.796875 MB.
DRAM currently available = 77.421875 MB.
Total ngspice program size = 130.989258 MB.
Resident set size = 129.192383 MB.
Shared ngspice pages = 1.912109 MB.
Text (code) pages = 1.466797 MB.
Stack = 0 bytes.
Library pages = 127.340820 MB.

